warn: The `get_runtime_isa` function is deprecated. Please migrate away from using this function.
warn: The se.py script is deprecated. It will be removed in future releases of  gem5.
warn: The `get_runtime_isa` function is deprecated. Please migrate away from using this function.
Global frequency set at 1000000000000 ticks per second
warn: No dot file generated. Please install pydot to generate the dot file and pdf.
src/mem/dram_interface.cc:690: warn: DRAM device capacity (8192 Mbytes) does not match the address range assigned (512 Mbytes)
src/base/statistics.hh:279: warn: One of the stats is a legacy stat. Legacy stat is a stat that does not belong to any statistics::Group. Legacy stat is deprecated.
system.remote_gdb: Listening for connections on port 7000
gem5 Simulator System.  https://www.gem5.org
gem5 is copyrighted software; use the --copyright option for details.

gem5 version 23.0.0.1
gem5 compiled Apr  1 2026 17:16:19
gem5 started Apr 27 2026 21:43:20
gem5 executing on vbox, pid 4064
command line: /home/casp26p1/gem5/build/X86/gem5.opt -d /home/casp26p1/Downloads/Project1_SPEC-master/results_corners/429.mcf/baseline /home/casp26p1/gem5/configs/deprecated/example/se.py -c /home/casp26p1/Downloads/Project1_SPEC-master/429.mcf/src/benchmark -o /home/casp26p1/Downloads/Project1_SPEC-master/429.mcf/data/inp.in -I 100000000 --cpu-type=TimingSimpleCPU --caches --l2cache --l1d_size=128kB --l1i_size=128kB --l2_size=1MB --l1d_assoc=2 --l1i_assoc=2 --l2_assoc=1 --cacheline_size=64

**** REAL SIMULATION ****
src/sim/simulate.cc:194: info: Entering event queue @ 0.  Starting simulation...
src/sim/mem_state.cc:443: info: Increasing stack size by one page.

MCF SPEC CPU2006 version 1.10
Copyright (c) 1998-2000 Zuse Institut Berlin (ZIB)
Copyright (c) 2000-2002 Andreas Loebel & ZIB
Copyright (c) 2003-2005 Andreas Loebel

Exiting @ tick 179692903500 because a thread reached the max instruction count
